#======================================================================

# CRYSTAL DATA

#----------------------------------------------------------------------

data_VESTA_phase_1


_chemical_name_common                  ''
_cell_length_a                         14.83101
_cell_length_b                         14.77109
_cell_length_c                         14.78025
_cell_angle_alpha                      59.95663
_cell_angle_beta                       59.89305
_cell_angle_gamma                      59.97554
_space_group_name_H-M_alt              'P 1'
_space_group_IT_number                 1

loop_
_space_group_symop_operation_xyz
   'x, y, z'

loop_
   _atom_site_label
   _atom_site_occupancy
   _atom_site_fract_x
   _atom_site_fract_y
   _atom_site_fract_z
   _atom_site_adp_type
   _atom_site_B_iso_or_equiv
   _atom_site_type_symbol
   C1         1.0     0.539009      0.930383      0.086753     Biso  1.000000 C
   C2         1.0     0.445699      0.925997      0.091007     Biso  1.000000 C
   C3         1.0     0.005886      1.002110      0.299869     Biso  1.000000 C
   C4         1.0     0.008094      1.004036      0.398940     Biso  1.000000 C
   C5         1.0     0.080526      0.913903      0.453211     Biso  1.000000 C
   C6         1.0     0.085036      0.909162      0.548675     Biso  1.000000 C
   C7         1.0     0.011858      1.000226      0.589546     Biso  1.000000 C
   C8         1.0     0.005450      1.001293      0.692302     Biso  1.000000 C
   C9         1.0     0.298737      1.002778      0.691559     Biso  1.000000 C
   C10        1.0     0.396449      1.006785      0.587190     Biso  1.000000 C
   C11        1.0     0.426373      0.944322      0.524687     Biso  1.000000 C
   C12        1.0     0.520891      0.941881      0.428023     Biso  1.000000 C
   C13        1.0     0.586756      1.004571      0.396571     Biso  1.000000 C
   C14        1.0     0.690145      1.004388      0.299981     Biso  1.000000 C
   C15        1.0     0.005169      0.690011      0.299541     Biso  1.000000 C
   C16        1.0     0.011744      0.586649      0.396255     Biso  1.000000 C
   C17        1.0     0.109404      0.519695      0.426325     Biso  1.000000 C
   C18        1.0     0.104645      0.425624      0.523557     Biso  1.000000 C
   C19        1.0     0.009187      0.396814      0.587339     Biso  1.000000 C
   C20        1.0     0.006726      0.298965      0.691643     Biso  1.000000 C
   C21        1.0     0.300190      0.001709      1.005846     Biso  1.000000 C
   C22        1.0     0.399197      0.004553      1.006754     Biso  1.000000 C
   C23        1.0     0.446106      0.085318      0.922067     Biso  1.000000 C
   C24        1.0     0.539795      0.092350      0.917543     Biso  1.000000 C
   C25        1.0     0.588195      0.011690      1.001957     Biso  1.000000 C
   C26        1.0     0.690759      0.006933      1.001676     Biso  1.000000 C
   C27        1.0     0.691865      0.297970      1.007626     Biso  1.000000 C
   C28        1.0     0.587011      0.394824      1.011872     Biso  1.000000 C
   C29        1.0     0.530718      0.428494      0.942291     Biso  1.000000 C
   C30        1.0     0.434444      0.522566      0.938999     Biso  1.000000 C
   C31        1.0     0.396122      0.584092      1.008627     Biso  1.000000 C
   C32        1.0     0.301360      0.689159      1.005498     Biso  1.000000 C
   C33        1.0     0.006669      0.688807      1.006387     Biso  1.000000 C
   C34        1.0     0.008697      0.583710      1.012828     Biso  1.000000 C
   C35        1.0     0.107318      0.513243      0.962468     Biso  1.000000 C
   C36        1.0     0.111961      0.415810      0.961641     Biso  1.000000 C
   C37        1.0     0.011334      0.392442      1.012461     Biso  1.000000 C
   C38        1.0     0.005397      0.296626      1.010004     Biso  1.000000 C
   C39        1.0     0.459427      0.071491      0.554084     Biso  1.000000 C
   C40        1.0     0.552990      0.069095      0.460333     Biso  1.000000 C
   C41        1.0     0.913205      0.463510      0.065797     Biso  1.000000 C
   C42        1.0     0.910444      0.557999      0.067168     Biso  1.000000 C
   C43        1.0     0.937340      0.094839      0.437897     Biso  1.000000 C
   C44        1.0     0.940348      0.091522      0.531744     Biso  1.000000 C
   C45        1.0     0.547242      0.453213      0.083371     Biso  1.000000 C
   C46        1.0     0.453408      0.546484      0.080333     Biso  1.000000 C
   C47        1.0     0.916763      0.554283      0.461385     Biso  1.000000 C
   C48        1.0     0.914230      0.460802      0.555404     Biso  1.000000 C
   H1         1.0     0.906819      0.281608      0.907086     Biso  1.000000 H
   H2         1.0     0.280973      0.905538      0.906054     Biso  1.000000 H
   H3         1.0     0.905327      0.905519      0.281647     Biso  1.000000 H
   H4         1.0     0.838574      0.442161      0.105000     Biso  1.000000 H
   H5         1.0     0.134741      0.845300      0.420945     Biso  1.000000 H
   H6         1.0     0.375960      0.895725      0.551556     Biso  1.000000 H
   H7         1.0     0.578541      0.869171      0.148844     Biso  1.000000 H
   H8         1.0     0.408387      0.863270      0.156633     Biso  1.000000 H
   H9         1.0     0.886879      0.160082      0.564035     Biso  1.000000 H
   H10        1.0     0.834431      0.613354      0.107019     Biso  1.000000 H
   H11        1.0     0.882274      0.165352      0.393751     Biso  1.000000 H
   H12        1.0     0.840560      0.436908      0.605854     Biso  1.000000 H
   H13        1.0     0.422648      0.595532      0.131726     Biso  1.000000 H
   H14        1.0     0.844387      0.606518      0.435412     Biso  1.000000 H
   H15        1.0     0.604410      0.116549      0.433442     Biso  1.000000 H
   H16        1.0     0.176815      0.374618      0.550066     Biso  1.000000 H
   H17        1.0     0.434536      0.120233      0.603557     Biso  1.000000 H
   H18        1.0     0.591958      0.425433      0.137525     Biso  1.000000 H
   H19        1.0     0.562343      0.380805      0.889209     Biso  1.000000 H
   H20        1.0     0.182650      0.533558      0.923062     Biso  1.000000 H
   H21        1.0     0.409678      0.144130      0.857087     Biso  1.000000 H
   H22        1.0     0.906769      0.905808      0.906721     Biso  1.000000 H
   H23        1.0     0.215688      0.275847      0.917939     Biso  1.000000 H
   H24        1.0     0.280349      0.349759      0.911830     Biso  1.000000 H
   H25        1.0     0.211670      0.604423      0.291754     Biso  1.000000 H
   H26        1.0     0.277041      0.477964      0.373368     Biso  1.000000 H
   H27        1.0     0.654790      0.169642      0.823671     Biso  1.000000 H
   H28        1.0     0.560662      0.209166      0.763214     Biso  1.000000 H
   H29        1.0     0.325844      0.628305      0.855267     Biso  1.000000 H
   H30        1.0     0.426750      0.520293      0.806372     Biso  1.000000 H
   H31        1.0     0.151047      0.809783      0.672794     Biso  1.000000 H
   H32        1.0     0.184140      0.747096      0.582683     Biso  1.000000 H
   H33        1.0     0.607852      0.885353      0.296037     Biso  1.000000 H
   H34        1.0     0.482221      0.862294      0.379084     Biso  1.000000 H
   N1         1.0     0.546009      0.877479      0.370740     Biso  1.000000 N
   N2         1.0     0.161378      0.817870      0.595882     Biso  1.000000 N
   N3         1.0     0.206728      0.543394      0.367064     Biso  1.000000 N
   N4         1.0     0.212750      0.349612      0.910302     Biso  1.000000 N
   N5         1.0     0.379737      0.549056      0.871372     Biso  1.000000 N
   N6         1.0     0.578061      0.178224      0.833476     Biso  1.000000 N
   O1         1.0     0.262114      0.923306      0.081833     Biso  1.000000 O
   O2         1.0     0.081456      0.923321      0.261583     Biso  1.000000 O
   O3         1.0     0.078260      0.921871      0.738305     Biso  1.000000 O
   O4         1.0     0.261111      0.923544      0.732927     Biso  1.000000 O
   O5         1.0     0.732431      0.928622      0.256363     Biso  1.000000 O
   O6         1.0     0.731860      0.928154      0.077340     Biso  1.000000 O
   O7         1.0     0.049792      0.849972      0.050303     Biso  1.000000 O
   O8         1.0     0.266148      0.732871      0.078419     Biso  1.000000 O
   O9         1.0     0.082185      0.732061      0.255981     Biso  1.000000 O
   O10        1.0     0.081827      0.261277      0.733092     Biso  1.000000 O
   O11        1.0     0.261561      0.077814      0.927581     Biso  1.000000 O
   O12        1.0     0.734224      0.082111      0.922889     Biso  1.000000 O
   O13        1.0     0.927900      0.078158      0.732331     Biso  1.000000 O
   O14        1.0     0.933524      0.201100      0.933394     Biso  1.000000 O
   O15        1.0     0.927850      0.261176      0.733372     Biso  1.000000 O
   O16        1.0     0.733494      0.260966      0.927951     Biso  1.000000 O
   O17        1.0     0.261098      0.733077      0.927323     Biso  1.000000 O
   O18        1.0     0.200772      0.932994      0.933218     Biso  1.000000 O
   O19        1.0     0.083414      0.728353      0.927586     Biso  1.000000 O
   O20        1.0     0.082847      0.255298      0.933189     Biso  1.000000 O
   O21        1.0     0.050275      0.049840      0.850308     Biso  1.000000 O
   O22        1.0     0.261289      0.077737      0.733415     Biso  1.000000 O
   O23        1.0     0.933029      0.932723      0.201130     Biso  1.000000 O
   O24        1.0     0.923115      0.733534      0.265874     Biso  1.000000 O
   O25        1.0     0.926627      0.733520      0.078810     Biso  1.000000 O
   O26        1.0     0.733423      0.077161      0.266272     Biso  1.000000 O
   O27        1.0     0.927908      0.077846      0.261585     Biso  1.000000 O
   O28        1.0     0.850602      0.050072      0.049948     Biso  1.000000 O
   O29        1.0     0.923399      0.262031      0.081785     Biso  1.000000 O
   O30        1.0     0.733234      0.261079      0.082570     Biso  1.000000 O
   O31        1.0     0.933151      0.932903      0.933528     Biso  1.000000 O
   O32        1.0     0.049685      0.049465      0.050360     Biso  1.000000 O
   Zr1        1.0     0.119530      0.880318      0.119498     Biso  1.000000 Zr
   Zr2        1.0     0.118852      0.880379      0.882126     Biso  1.000000 Zr
   Zr3        1.0     0.880794      0.880378      0.119484     Biso  1.000000 Zr
   Zr4        1.0     0.119646      0.119101      0.881175     Biso  1.000000 Zr
   Zr5        1.0     0.882220      0.119674      0.880393     Biso  1.000000 Zr
   Zr6        1.0     0.880286      0.118973      0.121139     Biso  1.000000 Zr
